cases/9500-Node/Exported Models/balance/dss_bal/ieee9500bal_base.dss
clear
set defaultbasefrequency=60.0
new Circuit.source phases=3 bus1=sourcebus basekv=115.000 pu=1.05000 angle=0.00000 r0=0.00000 x0=0.00100 r1=0.00000 x1=0.00100
set earthmodel=carson

new WireData.1/0_3w_cs gmr=0.003480 radius=0.005055 rac=0.000604 rdc=0.000592 normamps=200.0 Runits=m Radunits=m gmrunits=m
new WireData.1/0_acsr gmr=0.001359 radius=0.005055 rac=0.000647 rdc=0.000634 normamps=260.0 Runits=m Radunits=m gmrunits=m
new WireData.4_wpal gmr=0.002134 radius=0.003175 rac=0.001528 rdc=0.001498 normamps=150.0 Runits=m Radunits=m gmrunits=m
new WireData.4_acsr gmr=0.001331 radius=0.003175 rac=0.001572 rdc=0.001542 normamps=150.0 Runits=m Radunits=m gmrunits=m
new WireData.4_dpx gmr=0.002134 radius=0.003175 rac=0.001522 rdc=0.001492 normamps=136.0 Runits=m Radunits=m gmrunits=m
new WireData.2/0_wpal gmr=0.001554 radius=0.005677 rac=0.000530 rdc=0.000520 normamps=300.0 Runits=m Radunits=m gmrunits=m
new WireData.397_acsr gmr=0.007315 radius=0.009436 rac=0.000160 rdc=0.000157 normamps=630.0 Runits=m Radunits=m gmrunits=m
new WireData.397_aac_treewire gmr=0.007315 radius=0.009436 rac=0.000176 rdc=0.000172 normamps=526.0 Runits=m Radunits=m gmrunits=m
new WireData.2_acsr gmr=0.001275 radius=0.004013 rac=0.001010 rdc=0.000990 normamps=200.0 Runits=m Radunits=m gmrunits=m
new WireData.2_wpal gmr=0.001275 radius=0.004013 rac=0.001050 rdc=0.001030 normamps=155.0 Runits=m Radunits=m gmrunits=m
new WireData.6_wpal gmr=0.001201 radius=0.002515 rac=0.002430 rdc=0.002382 normamps=115.0 Runits=m Radunits=m gmrunits=m
new WireData.4_tpx gmr=0.002134 radius=0.003175 rac=0.001522 rdc=0.001492 normamps=115.0 Runits=m Radunits=m gmrunits=m
new WireData.1/0_tpx gmr=0.003480 radius=0.005055 rac=0.000114 rdc=0.000112 normamps=205.0 Runits=m Radunits=m gmrunits=m
new WireData.4/0_tpx gmr=0.004806 radius=0.007150 rac=0.000302 rdc=0.000296 normamps=318.0 Runits=m Radunits=m gmrunits=m
new WireData.2/0_acsr gmr=0.001554 radius=0.005677 rac=0.000530 rdc=0.000520 normamps=300.0 Runits=m Radunits=m gmrunits=m

new CNData.1/0_al_15kv_1/3 gmr=0.003380 radius=0.004675 rac=0.000603 rdc=0.000591 normamps=0.0 Runits=m Radunits=m gmrunits=m
~ EpsR=2.30 Ins=0.004450 DiaIns=0.021100 DiaCable=0.027400
~ k=6 GmrStrand=0.000250 DiaStrand=0.000640 Rstrand=0.002550

new LineSpacing.3ph_h-4_acsr2_acsr2_acsr4_wpal_ABC nconds=4 nphases=3 units=m
~ x=[-0.6096,0.1524,0.6096,0.1524]
~ h=[9.7536,10.3632,9.7536,8.2296]
new LineSpacing.1ph-4_acsrxx1/0_tpx_A nconds=2 nphases=1 units=m
~ x=[-0.1524,0.1524]
~ h=[10.5156,8.2296]
new LineSpacing.1ph-x4_wpalx4_wpal_B nconds=2 nphases=1 units=m
~ x=[-0.1524,0.1524]
~ h=[10.5156,8.2296]
new LineSpacing.1ph-x4_wpalx1/0_tpx_B nconds=2 nphases=1 units=m
~ x=[-0.1524,0.1524]
~ h=[10.5156,8.2296]
new LineSpacing.3ph_h-4_wpal4_wpal4_wpal1/0_tpx_ABC nconds=4 nphases=3 units=m
~ x=[-0.6096,0.1524,0.6096,0.1524]
~ h=[9.7536,10.3632,9.7536,8.2296]
new LineSpacing.3ph_h-4_acsr4_acsr4_acsr4_wpal_ABC nconds=4 nphases=3 units=m
~ x=[-0.6096,0.1524,0.6096,0.1524]
~ h=[9.7536,10.3632,9.7536,8.2296]
new LineSpacing.3ph_h-2/0_acsr2/0_acsr2/0_acsr2_acsr_ABC nconds=4 nphases=3 units=m
~ x=[-0.6096,0.1524,0.6096,0.1524]
~ h=[9.7536,10.3632,9.7536,8.2296]
new LineSpacing.1ph-x4_wpalx2_acsr_B nconds=2 nphases=1 units=m
~ x=[-0.1524,0.1524]
~ h=[10.5156,8.2296]
new LineSpacing.1ph-xx6_wpal6_wpal_C nconds=2 nphases=1 units=m
~ x=[-0.1524,0.1524]
~ h=[10.5156,8.2296]
new LineSpacing.1ph-x4_acsrx4_wpal_B nconds=2 nphases=1 units=m
~ x=[-0.1524,0.1524]
~ h=[10.5156,8.2296]
new LineSpacing.1ph-xx4_wpal4_wpal_C nconds=2 nphases=1 units=m
~ x=[-0.1524,0.1524]
~ h=[10.5156,8.2296]
new LineSpacing.1ph-2_acsrxx4_wpal_A nconds=2 nphases=1 units=m
~ x=[-0.1524,0.1524]
~ h=[10.5156,8.2296]
new LineSpacing.1ph-x4_acsrx1/0_tpx_B nconds=2 nphases=1 units=m
~ x=[-0.1524,0.1524]
~ h=[10.5156,8.2296]
new LineSpacing.1ph-x2_acsrx1/0_tpx_B nconds=2 nphases=1 units=m
~ x=[-0.1524,0.1524]
~ h=[10.5156,8.2296]
new LineSpacing.1ph-x4_acsrx4_tpx_B nconds=2 nphases=1 units=m
~ x=[-0.1524,0.1524]
~ h=[10.5156,8.2296]
new LineSpacing.3ph_h-2_acsr2_acsr4_acsr4_acsr_ABC nconds=4 nphases=3 units=m
~ x=[-0.6096,0.1524,0.6096,0.1524]
~ h=[9.7536,10.3632,9.7536,8.2296]
new LineSpacing.3ph_h-397_acsr397_acsr397_acsr2/0_wpal_ABC nconds=4 nphases=3 units=m
~ x=[-0.6096,0.1524,0.6096,0.1524]
~ h=[9.7536,10.3632,9.7536,8.2296]
new LineSpacing.1ph-x4_acsrx1/0_3w_cs_B nconds=2 nphases=1 units=m
~ x=[-0.1524,0.1524]
~ h=[10.5156,8.2296]
new LineSpacing.1p_1/0_axnj_db_A nconds=1 nphases=1 units=m
~ x=[0.0000]
~ h=[-1.2200]
new LineSpacing.1p_1/0_axnj_db_B nconds=1 nphases=1 units=m
~ x=[0.0000]
~ h=[-1.2200]
new LineSpacing.1p_1/0_axnj_db_C nconds=1 nphases=1 units=m
~ x=[0.0000]
~ h=[-1.2200]
new LineSpacing.1ph-2_acsrxx4_acsr_A nconds=2 nphases=1 units=m
~ x=[-0.1524,0.1524]
~ h=[10.5156,8.2296]
new LineSpacing.1ph-xx4_acsr1/0_acsr_C nconds=2 nphases=1 units=m
~ x=[-0.1524,0.1524]
~ h=[10.5156,8.2296]
new LineSpacing.1ph-2_acsrxx2_acsr_A nconds=2 nphases=1 units=m
~ x=[-0.1524,0.1524]
~ h=[10.5156,8.2296]
new LineSpacing.1ph-2_acsrxx2_acsr_C nconds=2 nphases=1 units=m
~ x=[-0.1524,0.1524]
~ h=[10.5156,8.2296]
new LineSpacing.1ph-xx4_wpal4_acsr_C nconds=2 nphases=1 units=m
~ x=[-0.1524,0.1524]
~ h=[10.5156,8.2296]
new LineSpacing.3p_1/0_axnj_db_ABC nconds=3 nphases=3 units=m
~ x=[-0.1524,0.0000,0.1524]
~ h=[-1.2200,-1.2200,-1.2200]
new LineSpacing.1ph-4_acsrxx4_acsr_A nconds=2 nphases=1 units=m
~ x=[-0.1524,0.1524]
~ h=[10.5156,8.2296]
new LineSpacing.1ph-4_acsrxx4_acsr_C nconds=2 nphases=1 units=m
~ x=[-0.1524,0.1524]
~ h=[10.5156,8.2296]
new LineSpacing.1ph-2_acsrxx4/0_tpx_A nconds=2 nphases=1 units=m
~ x=[-0.1524,0.1524]
~ h=[10.5156,8.2296]
new LineSpacing.1ph-x4_acsrx4_dpx_B nconds=2 nphases=1 units=m
~ x=[-0.1524,0.1524]
~ h=[10.5156,8.2296]
new LineSpacing.1ph-xx4_acsr4_tpx_C nconds=2 nphases=1 units=m
~ x=[-0.1524,0.1524]
~ h=[10.5156,8.2296]
new LineSpacing.1ph-4_acsrxx6_wpal_A nconds=2 nphases=1 units=m
~ x=[-0.1524,0.1524]
~ h=[10.5156,8.2296]
new LineSpacing.1ph-x4_acsrx2_wpal_B nconds=2 nphases=1 units=m
~ x=[-0.1524,0.1524]
~ h=[10.5156,8.2296]
new LineSpacing.1ph-x4_wpalx4_acsr_B nconds=2 nphases=1 units=m
~ x=[-0.1524,0.1524]
~ h=[10.5156,8.2296]
new LineSpacing.1ph-xx4_acsr4_acsr_A nconds=2 nphases=1 units=m
~ x=[-0.1524,0.1524]
~ h=[10.5156,8.2296]
new LineSpacing.1ph-xx4_acsr4_acsr_B nconds=2 nphases=1 units=m
~ x=[-0.1524,0.1524]
~ h=[10.5156,8.2296]
new LineSpacing.1ph-xx4_acsr4_acsr_C nconds=2 nphases=1 units=m
~ x=[-0.1524,0.1524]
~ h=[10.5156,8.2296]
new LineSpacing.1ph-xx4_wpal1/0_tpx_C nconds=2 nphases=1 units=m
~ x=[-0.1524,0.1524]
~ h=[10.5156,8.2296]
new LineSpacing.2ph_h-2_acsrx2_acsr2_acsr_AC nconds=3 nphases=2 units=m
~ x=[-0.6096,0.6096,0.1524]
~ h=[9.7536,9.7536,8.2296]
new LineSpacing.3ph_h-4_wpal4_wpal4_wpal4_wpal_ABC nconds=4 nphases=3 units=m
~ x=[-0.6096,0.1524,0.6096,0.1524]
~ h=[9.7536,10.3632,9.7536,8.2296]
new LineSpacing.1ph-2_acsrxx1/0_tpx_A nconds=2 nphases=1 units=m
~ x=[-0.1524,0.1524]
~ h=[10.5156,8.2296]
new LineSpacing.1ph-x2_acsrx1/0_3w_cs_B nconds=2 nphases=1 units=m
~ x=[-0.1524,0.1524]
~ h=[10.5156,8.2296]
new LineSpacing.3ph_h-2/0_acsr2/0_acsr2/0_acsr4_acsr_ABC nconds=4 nphases=3 units=m
~ x=[-0.6096,0.1524,0.6096,0.1524]
~ h=[9.7536,10.3632,9.7536,8.2296]
new LineSpacing.1ph-4_wpalxx2_wpal_A nconds=2 nphases=1 units=m
~ x=[-0.1524,0.1524]
~ h=[10.5156,8.2296]
new LineSpacing.1ph-x2_acsrx4_tpx_B nconds=2 nphases=1 units=m
~ x=[-0.1524,0.1524]
~ h=[10.5156,8.2296]
new LineSpacing.3ph-69kv_397_treewire_ABC nconds=4 nphases=3 units=m
~ x=[0.6096,-0.6096,0.6096,0.1524]
~ h=[12.1900,13.7200,15.2400,17.0700]
new LineSpacing.1ph-x2_acsrx4_acsr_B nconds=2 nphases=1 units=m
~ x=[-0.1524,0.1524]
~ h=[10.5156,8.2296]
new LineSpacing.1ph-4_wpalxx4_acsr_A nconds=2 nphases=1 units=m
~ x=[-0.1524,0.1524]
~ h=[10.5156,8.2296]
new LineSpacing.1ph-2_wpalxx2_wpal_A nconds=2 nphases=1 units=m
~ x=[-0.1524,0.1524]
~ h=[10.5156,8.2296]
new LineSpacing.1ph-4_acsrxx2_acsr_A nconds=2 nphases=1 units=m
~ x=[-0.1524,0.1524]
~ h=[10.5156,8.2296]
new LineSpacing.1ph-4_acsrxx2_acsr_C nconds=2 nphases=1 units=m
~ x=[-0.1524,0.1524]
~ h=[10.5156,8.2296]
new LineSpacing.1ph-x4_acsrx4_acsr_A nconds=2 nphases=1 units=m
~ x=[-0.1524,0.1524]
~ h=[10.5156,8.2296]
new LineSpacing.1ph-x4_acsrx4_acsr_B nconds=2 nphases=1 units=m
~ x=[-0.1524,0.1524]
~ h=[10.5156,8.2296]
new LineSpacing.3ph_h-4_acsr4_acsr4_acsr4_acsr_ABC nconds=4 nphases=3 units=m
~ x=[-0.6096,0.1524,0.6096,0.1524]
~ h=[9.7536,10.3632,9.7536,8.2296]
new LineSpacing.1ph-xx2_acsr4_dpx_C nconds=2 nphases=1 units=m
~ x=[-0.1524,0.1524]
~ h=[10.5156,8.2296]
new LineSpacing.1ph-x2_acsrx2_acsr_A nconds=2 nphases=1 units=m
~ x=[-0.1524,0.1524]
~ h=[10.5156,8.2296]
new LineSpacing.1ph-x2_acsrx2_acsr_B nconds=2 nphases=1 units=m
~ x=[-0.1524,0.1524]
~ h=[10.5156,8.2296]
new LineSpacing.1ph-x2_acsrx2_acsr_C nconds=2 nphases=1 units=m
~ x=[-0.1524,0.1524]
~ h=[10.5156,8.2296]
new LineSpacing.1ph-4_acsrxx4_wpal_A nconds=2 nphases=1 units=m
~ x=[-0.1524,0.1524]
~ h=[10.5156,8.2296]
new LineSpacing.1ph-xx4_acsr2_acsr_C nconds=2 nphases=1 units=m
~ x=[-0.1524,0.1524]
~ h=[10.5156,8.2296]
new LineSpacing.1ph-4_wpalxx1/0_tpx_A nconds=2 nphases=1 units=m
~ x=[-0.1524,0.1524]
~ h=[10.5156,8.2296]
new LineSpacing.3ph_h-397_acsr397_acsr397_acsr397_acsr_ABC nconds=4 nphases=3 units=m
~ x=[-0.6096,0.1524,0.6096,0.1524]
~ h=[9.7536,10.3632,9.7536,8.2296]
new LineSpacing.1ph-xx2_acsr1/0_tpx_C nconds=2 nphases=1 units=m
~ x=[-0.1524,0.1524]
~ h=[10.5156,8.2296]
new LineSpacing.3ph_h-2_acsr2_acsr2_acsr2_acsr_ABC nconds=4 nphases=3 units=m
~ x=[-0.6096,0.1524,0.6096,0.1524]
~ h=[9.7536,10.3632,9.7536,8.2296]
new LineSpacing.1ph-xx4_acsr4_wpal_A nconds=2 nphases=1 units=m
~ x=[-0.1524,0.1524]
~ h=[10.5156,8.2296]
new LineSpacing.1ph-xx4_acsr4_wpal_C nconds=2 nphases=1 units=m
~ x=[-0.1524,0.1524]
~ h=[10.5156,8.2296]
new LineSpacing.1ph-2/0_acsrxx2_acsr_A nconds=2 nphases=1 units=m
~ x=[-0.1524,0.1524]
~ h=[10.5156,8.2296]
new LineSpacing.1ph-xx2/0_acsr1/0_tpx_C nconds=2 nphases=1 units=m
~ x=[-0.1524,0.1524]
~ h=[10.5156,8.2296]
new LineSpacing.3ph_h-397_acsr397_acsr397_acsr2/0_acsr_ABC nconds=4 nphases=3 units=m
~ x=[-0.6096,0.1524,0.6096,0.1524]
~ h=[9.7536,10.3632,9.7536,8.2296]
new LineSpacing.1ph-xx2_acsr2_acsr_A nconds=2 nphases=1 units=m
~ x=[-0.1524,0.1524]
~ h=[10.5156,8.2296]
new LineSpacing.1ph-xx2_acsr2_acsr_C nconds=2 nphases=1 units=m
~ x=[-0.1524,0.1524]
~ h=[10.5156,8.2296]
new LineSpacing.3ph_h-2/0_acsr2/0_acsr2/0_acsr2_wpal_ABC nconds=4 nphases=3 units=m
~ x=[-0.6096,0.1524,0.6096,0.1524]
~ h=[9.7536,10.3632,9.7536,8.2296]
new LineSpacing.1ph-4_wpalxx4_wpal_A nconds=2 nphases=1 units=m
~ x=[-0.1524,0.1524]
~ h=[10.5156,8.2296]
new LineSpacing.1ph-4_wpalxx4_wpal_C nconds=2 nphases=1 units=m
~ x=[-0.1524,0.1524]
~ h=[10.5156,8.2296]
new LineSpacing.3ph_h-4_acsr4_acsr4_acsr4_tpx_ABC nconds=4 nphases=3 units=m
~ x=[-0.6096,0.1524,0.6096,0.1524]
~ h=[9.7536,10.3632,9.7536,8.2296]
new LineSpacing.1ph-4_acsrxx1/0_3w_cs_A nconds=2 nphases=1 units=m
~ x=[-0.1524,0.1524]
~ h=[10.5156,8.2296]

new Linecode.cap_1c_PUZ nphases=1 units=mi rmatrix=[1.00000 ] xmatrix=[1.00000 ] cmatrix=[0.00000 ]
new Linecode.cap_3b_PUZ nphases=1 units=mi rmatrix=[1.00000 ] xmatrix=[1.00000 ] cmatrix=[0.00000 ]
new Linecode.cap_1b_PUZ nphases=1 units=mi rmatrix=[1.00000 ] xmatrix=[1.00000 ] cmatrix=[0.00000 ]
new Linecode.cap_3a_PUZ nphases=1 units=mi rmatrix=[1.00000 ] xmatrix=[1.00000 ] cmatrix=[0.00000 ]
new Linecode.cap_1a_PUZ nphases=1 units=mi rmatrix=[1.00000 ] xmatrix=[1.00000 ] cmatrix=[0.00000 ]
new Linecode.cap_2a_PUZ nphases=1 units=mi rmatrix=[1.00000 ] xmatrix=[1.00000 ] cmatrix=[0.00000 ]
new Linecode.cap_3c_PUZ nphases=1 units=mi rmatrix=[1.00000 ] xmatrix=[1.00000 ] cmatrix=[0.00000 ]
new Linecode.4/0triplex nphases=2 units=mi rmatrix=[2.16454 | 0.623542 2.16454 ] xmatrix=[0.880800 | 0.673688 0.880800 ] cmatrix=[15.8400 | -12.6720 15.8400 ]
new Linecode.cap_2c_PUZ nphases=1 units=mi rmatrix=[1.00000 ] xmatrix=[1.00000 ] cmatrix=[0.00000 ]
new Linecode.750_triplex nphases=2 units=mi rmatrix=[0.262666 | 0.123666 0.262666 ] xmatrix=[0.146913 | 0.0353481 0.146913 ] cmatrix=[15.8400 | -12.6720 15.8400 ]
new Linecode.cap_2b_PUZ nphases=1 units=mi rmatrix=[1.00000 ] xmatrix=[1.00000 ] cmatrix=[0.00000 ]

new Xfmrcode.ct100 windings=3 phases=1 xhl=2.040000 xht=2.040000 xlt=1.360000 %imag=0.500 %noloadloss=0.200
~ wdg=1 conn=w kv=7.200 kva=100.0 %r=0.600000
~ wdg=2 conn=w kv=0.120 kva=100.0 %r=1.200000
~ wdg=3 conn=w kv=0.120 kva=100.0 %r=1.200000
new Xfmrcode.ct250 windings=3 phases=1 xhl=2.040000 xht=2.040000 xlt=1.360000 %imag=0.500 %noloadloss=0.200
~ wdg=1 conn=w kv=7.200 kva=250.0 %r=0.600000
~ wdg=2 conn=w kv=0.120 kva=250.0 %r=1.200000
~ wdg=3 conn=w kv=0.120 kva=250.0 %r=1.200000
new Xfmrcode.cimxfmrcode_feeder_reg1c windings=2 phases=1 xhl=0.100000 %imag=0.000 %noloadloss=0.000
~ wdg=1 conn=w kv=7.200 kva=27500.0 %r=0.000500
~ wdg=2 conn=w kv=7.200 kva=27500.0 %r=0.000500
new Xfmrcode.cimxfmrcode_feeder_reg1b windings=2 phases=1 xhl=0.100000 %imag=0.000 %noloadloss=0.000
~ wdg=1 conn=w kv=7.200 kva=27500.0 %r=0.000500
~ wdg=2 conn=w kv=7.200 kva=27500.0 %r=0.000500
new Xfmrcode.cimxfmrcode_feeder_reg1a windings=2 phases=1 xhl=0.100000 %imag=0.000 %noloadloss=0.000
~ wdg=1 conn=w kv=7.200 kva=27500.0 %r=0.000500
~ wdg=2 conn=w kv=7.200 kva=27500.0 %r=0.000500
new Xfmrcode.cimxfmrcode_feeder_reg3c windings=2 phases=1 xhl=0.100000 %imag=0.000 %noloadloss=0.000
~ wdg=1 conn=w kv=7.200 kva=27500.0 %r=0.000500
~ wdg=2 conn=w kv=7.200 kva=27500.0 %r=0.000500
new Xfmrcode.cimxfmrcode_feeder_reg3b windings=2 phases=1 xhl=0.100000 %imag=0.000 %noloadloss=0.000
~ wdg=1 conn=w kv=7.200 kva=27500.0 %r=0.000500
~ wdg=2 conn=w kv=7.200 kva=27500.0 %r=0.000500
new Xfmrcode.cimxfmrcode_feeder_reg3a windings=2 phases=1 xhl=0.100000 %imag=0.000 %noloadloss=0.000
~ wdg=1 conn=w kv=7.200 kva=27500.0 %r=0.000500
~ wdg=2 conn=w kv=7.200 kva=27500.0 %r=0.000500
new Xfmrcode.ct25 windings=3 phases=1 xhl=2.040000 xht=2.040000 xlt=1.360000 %imag=0.500 %noloadloss=0.200
~ wdg=1 conn=w kv=7.200 kva=25.0 %r=0.600000
~ wdg=2 conn=w kv=0.120 kva=25.0 %r=1.200000
~ wdg=3 conn=w kv=0.120 kva=25.0 %r=1.200000
new Xfmrcode.cimxfmrcode_vreg2_b windings=2 phases=1 xhl=0.100000 %imag=0.000 %noloadloss=0.000
~ wdg=1 conn=w kv=7.200 kva=10000.0 %r=0.005000
~ wdg=2 conn=w kv=7.200 kva=10000.0 %r=0.005000
new Xfmrcode.cimxfmrcode_vreg3_a windings=2 phases=1 xhl=0.100000 %imag=0.000 %noloadloss=0.000
~ wdg=1 conn=w kv=7.200 kva=10000.0 %r=0.005000
~ wdg=2 conn=w kv=7.200 kva=10000.0 %r=0.005000
new Xfmrcode.cimxfmrcode_vreg2_a windings=2 phases=1 xhl=0.100000 %imag=0.000 %noloadloss=0.000
~ wdg=1 conn=w kv=7.200 kva=10000.0 %r=0.005000
~ wdg=2 conn=w kv=7.200 kva=10000.0 %r=0.005000
new Xfmrcode.cimxfmrcode_vreg4_c windings=2 phases=1 xhl=0.100000 %imag=0.000 %noloadloss=0.000
~ wdg=1 conn=w kv=7.200 kva=10000.0 %r=0.005000
~ wdg=2 conn=w kv=7.200 kva=10000.0 %r=0.005000
new Xfmrcode.ct75 windings=3 phases=1 xhl=2.040000 xht=2.040000 xlt=1.360000 %imag=0.500 %noloadloss=0.200
~ wdg=1 conn=w kv=7.200 kva=75.0 %r=0.600000
~ wdg=2 conn=w kv=0.120 kva=75.0 %r=1.200000
~ wdg=3 conn=w kv=0.120 kva=75.0 %r=1.200000
new Xfmrcode.cimxfmrcode_vreg3_c windings=2 phases=1 xhl=0.100000 %imag=0.000 %noloadloss=0.000
~ wdg=1 conn=w kv=7.200 kva=10000.0 %r=0.005000
~ wdg=2 conn=w kv=7.200 kva=10000.0 %r=0.005000
new Xfmrcode.cimxfmrcode_vreg4_b windings=2 phases=1 xhl=0.100000 %imag=0.000 %noloadloss=0.000
~ wdg=1 conn=w kv=7.200 kva=10000.0 %r=0.005000
~ wdg=2 conn=w kv=7.200 kva=10000.0 %r=0.005000
new Xfmrcode.ct50 windings=3 phases=1 xhl=2.040000 xht=2.040000 xlt=1.360000 %imag=0.500 %noloadloss=0.200
~ wdg=1 conn=w kv=7.200 kva=50.0 %r=0.600000
~ wdg=2 conn=w kv=0.120 kva=50.0 %r=1.200000
~ wdg=3 conn=w kv=0.120 kva=50.0 %r=1.200000
new Xfmrcode.cimxfmrcode_vreg2_c windings=2 phases=1 xhl=0.100000 %imag=0.000 %noloadloss=0.000
~ wdg=1 conn=w kv=7.200 kva=10000.0 %r=0.005000
~ wdg=2 conn=w kv=7.200 kva=10000.0 %r=0.005000
new Xfmrcode.cimxfmrcode_vreg3_b windings=2 phases=1 xhl=0.100000 %imag=0.000 %noloadloss=0.000
~ wdg=1 conn=w kv=7.200 kva=10000.0 %r=0.005000
~ wdg=2 conn=w kv=7.200 kva=10000.0 %r=0.005000
new Xfmrcode.cimxfmrcode_vreg4_a windings=2 phases=1 xhl=0.100000 %imag=0.000 %noloadloss=0.000
~ wdg=1 conn=w kv=7.200 kva=10000.0 %r=0.005000
~ wdg=2 conn=w kv=7.200 kva=10000.0 %r=0.005000
new Xfmrcode.ct5 windings=3 phases=1 xhl=2.040000 xht=2.040000 xlt=1.360000 %imag=0.500 %noloadloss=0.200
~ wdg=1 conn=w kv=7.200 kva=5.0 %r=0.600000
~ wdg=2 conn=w kv=0.120 kva=5.0 %r=1.200000
~ wdg=3 conn=w kv=0.120 kva=5.0 %r=1.200000
new Xfmrcode.cimxfmrcode_feeder_reg2c windings=2 phases=1 xhl=0.100000 %imag=0.000 %noloadloss=0.000
~ wdg=1 conn=w kv=7.200 kva=27500.0 %r=0.000500
~ wdg=2 conn=w kv=7.200 kva=27500.0 %r=0.000500
new Xfmrcode.cimxfmrcode_feeder_reg2b windings=2 phases=1 xhl=0.100000 %imag=0.000 %noloadloss=0.000
~ wdg=1 conn=w kv=7.200 kva=27500.0 %r=0.000500
~ wdg=2 conn=w kv=7.200 kva=27500.0 %r=0.000500
new Xfmrcode.cimxfmrcode_feeder_reg2a windings=2 phases=1 xhl=0.100000 %imag=0.000 %noloadloss=0.000
~ wdg=1 conn=w kv=7.200 kva=27500.0 %r=0.000500
~ wdg=2 conn=w kv=7.200 kva=27500.0 %r=0.000500
new Xfmrcode.ct15 windings=3 phases=1 xhl=2.040000 xht=2.040000 xlt=1.360000 %imag=0.500 %noloadloss=0.200
~ wdg=1 conn=w kv=7.200 kva=15.0 %r=0.600000
~ wdg=2 conn=w kv=0.120 kva=15.0 %r=1.200000
~ wdg=3 conn=w kv=0.120 kva=15.0 %r=1.200000
new Xfmrcode.ct37 windings=3 phases=1 xhl=2.040000 xht=2.040000 xlt=1.360000 %imag=0.500 %noloadloss=0.200
~ wdg=1 conn=w kv=7.200 kva=37.5 %r=0.600000
~ wdg=2 conn=w kv=0.120 kva=37.5 %r=1.200000
~ wdg=3 conn=w kv=0.120 kva=37.5 %r=1.200000
new Xfmrcode.ct10 windings=3 phases=1 xhl=2.040000 xht=2.040000 xlt=1.360000 %imag=0.500 %noloadloss=0.200
~ wdg=1 conn=w kv=7.200 kva=10.0 %r=0.600000
~ wdg=2 conn=w kv=0.120 kva=10.0 %r=1.200000
~ wdg=3 conn=w kv=0.120 kva=10.0 %r=1.200000

new PVSystem.pv_6 phases=2 bus1=sx2000404a.1.2 conn=w kva=12.140 kv=0.208 pmpp=9.710 irrad=1.000 pf=1.0000 vminpu=0.9000 LimitCurrent=yes %cutin=20.00 %cutout=20.00
new PVSystem.pv_8 phases=2 bus1=sx2000405a.1.2 conn=w kva=18.660 kv=0.208 pmpp=14.930 irrad=1.000 pf=1.0000 vminpu=0.9000 LimitCurrent=yes %cutin=20.00 %cutout=20.00
new PVSystem.pv_2 phases=2 bus1=sx2000402a.1.2 conn=w kva=14.060 kv=0.208 pmpp=11.250 irrad=1.000 pf=1.0000 vminpu=0.9000 LimitCurrent=yes %cutin=20.00 %cutout=20.00
new PVSystem.pv_4 phases=2 bus1=sx2000403a.2.1 conn=w kva=15.700 kv=0.208 pmpp=12.560 irrad=1.000 pf=1.0000 vminpu=0.9000 LimitCurrent=yes %cutin=20.00 %cutout=20.00
new PVSystem.pv_1043 phases=2 bus1=sx2804272b.1.2 conn=w kva=7.300 kv=0.208 pmpp=5.840 irrad=1.000 pf=1.0000 vminpu=0.9000 LimitCurrent=yes %cutin=20.00 %cutout=20.00
new PVSystem.pv_156 phases=2 bus1=sx2001309a.1.2 conn=w kva=10.310 kv=0.208 pmpp=8.250 irrad=1.000 pf=1.0000 vminpu=0.9000 LimitCurrent=yes %cutin=20.00 %cutout=20.00
new PVSystem.pv_1163 phases=2 bus1=sx2879078a.1.2 conn=w kva=6.700 kv=0.208 pmpp=5.320 irrad=1.000 pf=1.0000 vminpu=0.9000 LimitCurrent=yes %cutin=20.00 %cutout=20.00
new PVSystem.pv_1041 phases=2 bus1=sx2803199b.1.2 conn=w kva=24.300 kv=0.208 pmpp=19.450 irrad=1.000 pf=1.0000 vminpu=0.9000 LimitCurrent=yes %cutin=20.00 %cutout=20.00
new PVSystem.pv_158 phases=2 bus1=sx2001310a.2.1 conn=w kva=22.680 kv=0.208 pmpp=18.150 irrad=1.000 pf=1.0000 vminpu=0.9000 LimitCurrent=yes %cutin=20.00 %cutout=20.00
new PVSystem.pv_1161 phases=2 bus1=sx2730149c.1.2 conn=w kva=7.700 kv=0.208 pmpp=6.100 irrad=1.000 pf=1.0000 vminpu=0.9000 LimitCurrent=yes %cutin=20.00 %cutout=20.00
new PVSystem.pv_50 phases=2 bus1=sx2000712b.2.1 conn=w kva=14.000 kv=0.208 pmpp=11.200 irrad=1.000 pf=1.0000 vminpu=0.9000 LimitCurrent=yes %cutin=20.00 %cutout=20.00
new PVSystem.pv_52 phases=2 bus1=sx2000713b.1.2 conn=w kva=15.970 kv=0.208 pmpp=12.780 irrad=1.000 pf=1.0000 vminpu=0.9000 LimitCurrent=yes %cutin=20.00 %cutout=20.00
new PVSystem.pv_54 phases=2 bus1=sx2000714b.2.1 conn=w kva=11.320 kv=0.208 pmpp=9.050 irrad=1.000 pf=1.0000 vminpu=0.9000 LimitCurrent=yes %cutin=20.00 %cutout=20.00
new PVSystem.pv_1049 phases=2 bus1=sx2814529c.1.2 conn=w kva=25.400 kv=0.208 pmpp=20.340 irrad=1.000 pf=1.0000 vminpu=0.9000 LimitCurrent=yes %cutin=20.00 %cutout=20.00
new PVSystem.pv_150 phases=2 bus1=sx2001306a.2.1 conn=w kva=11.840 kv=0.208 pmpp=9.470 irrad=1.000 pf=1.0000 vminpu=0.9000 LimitCurrent=yes %cutin=20.00 %cutout=20.00
new PVSystem.pv_1169 phases=2 bus1=sx2673317a.1.2 conn=w kva=6.700 kv=0.208 pmpp=5.320 irrad=1.000 pf=1.0000 vminpu=0.9000 LimitCurrent=yes %cutin=20.00 %cutout=20.00
new PVSystem.pv_56 phases=2 bus1=sx2000715b.2.1 conn=w kva=14.060 kv=0.208 pmpp=11.250 irrad=1.000 pf=1.0000 vminpu=0.9000 LimitCurrent=yes %cutin=20.00 %cutout=20.00
new PVSystem.pv_1047 phases=2 bus1=sx3104155c.2.1 conn=w kva=12.700 kv=0.208 pmpp=10.170 irrad=1.000 pf=1.0000 vminpu=0.9000 LimitCurrent=yes %cutin=20.00 %cutout=20.00
new PVSystem.pv_152 phases=2 bus1=sx2001307a.1.2 conn=w kva=17.480 kv=0.208 pmpp=13.990 irrad=1.000 pf=1.0000 vminpu=0.9000 LimitCurrent=yes %cutin=20.00 %cutout=20.00
new PVSystem.pv_1167 phases=2 bus1=sx2897792a.2.1 conn=w kva=6.700 kv=0.208 pmpp=5.320 irrad=1.000 pf=1.0000 vminpu=0.9000 LimitCurrent=yes %cutin=20.00 %cutout=20.00
new PVSystem.pv_58 phases=2 bus1=sx2000902c.1.2 conn=w kva=14.060 kv=0.208 pmpp=11.250 irrad=1.000 pf=1.0000 vminpu=0.9000 LimitCurrent=yes %cutin=20.00 %cutout=20.00
new PVSystem.pv_1045 phases=2 bus1=sx3216347c.1.2 conn=w kva=7.600 kv=0.208 pmpp=6.100 irrad=1.000 pf=1.0000 vminpu=0.9000 LimitCurrent=yes %cutin=20.00 %cutout=20.00
new PVSystem.pv_154 phases=2 bus1=sx2001308a.1.2 conn=w kva=18.300 kv=0.208 pmpp=14.650 irrad=1.000 pf=1.0000 vminpu=0.9000 LimitCurrent=yes %cutin=20.00 %cutout=20.00
new PVSystem.pv_1165 phases=2 bus1=sx3197637c.1.2 conn=w kva=5.100 kv=0.208 pmpp=4.070 irrad=1.000 pf=1.0000 vminpu=0.9000 LimitCurrent=yes %cutin=20.00 %cutout=20.00
new PVSystem.pv_1153 phases=2 bus1=sx2748143a.1.2 conn=w kva=11.100 kv=0.208 pmpp=8.870 irrad=1.000 pf=1.0000 vminpu=0.9000 LimitCurrent=yes %cutin=20.00 %cutout=20.00
new PVSystem.pv_1031 phases=2 bus1=sx3178981b.2.1 conn=w kva=12.100 kv=0.208 pmpp=9.730 irrad=1.000 pf=1.0000 vminpu=0.9000 LimitCurrent=yes %cutin=20.00 %cutout=20.00
new PVSystem.pv_166 phases=2 bus1=sx2001314a.2.1 conn=w kva=26.810 kv=0.208 pmpp=21.450 irrad=1.000 pf=1.0000 vminpu=0.9000 LimitCurrent=yes %cutin=20.00 %cutout=20.00
new PVSystem.pv_1151 phases=2 bus1=sx3101194c.2.1 conn=w kva=38.100 kv=0.208 pmpp=30.520 irrad=1.000 pf=1.0000 vminpu=0.9000 LimitCurrent=yes %cutin=20.00 %cutout=20.00
new PVSystem.pv_168 phases=2 bus1=sx2001315a.2.1 conn=w kva=24.910 kv=0.208 pmpp=19.930 irrad=1.000 pf=1.0000 vminpu=0.9000 LimitCurrent=yes %cutin=20.00 %cutout=20.00
new PVSystem.pv_40 phases=2 bus1=sx2000707b.2.1 conn=w kva=12.370 kv=0.208 pmpp=9.900 irrad=1.000 pf=1.0000 vminpu=0.9000 LimitCurrent=yes %cutin=20.00 %cutout=20.00
new PVSystem.pv_42 phases=2 bus1=sx2000708b.2.1 conn=w kva=15.270 kv=0.208 pmpp=12.220 irrad=1.000 pf=1.0000 vminpu=0.9000 LimitCurrent=yes %cutin=20.00 %cutout=20.00
new PVSystem.pv_44 phases=2 bus1=sx2000709b.1.2 conn=w kva=10.900 kv=0.208 pmpp=8.710 irrad=1.000 pf=1.0000 vminpu=0.9000 LimitCurrent=yes %cutin=20.00 %cutout=20.00
new PVSystem.pv_1039 phases=2 bus1=sx2766721a.2.1 conn=w kva=11.100 kv=0.208 pmpp=8.870 irrad=1.000 pf=1.0000 vminpu=0.9000 LimitCurrent=yes %cutin=20.00 %cutout=20.00
new PVSystem.pv_1159 phases=2 bus1=sx3104144a.1.2 conn=w kva=4.400 kv=0.208 pmpp=3.550 irrad=1.000 pf=1.0000 vminpu=0.9000 LimitCurrent=yes %cutin=20.00 %cutout=20.00
new PVSystem.pv_46 phases=2 bus1=sx2000710b.1.2 conn=w kva=13.070 kv=0.208 pmpp=10.450 irrad=1.000 pf=1.0000 vminpu=0.9000 LimitCurrent=yes %cutin=20.00 %cutout=20.00
new PVSystem.pv_1037 phases=2 bus1=sx2729428a.1.2 conn=w kva=6.700 kv=0.208 pmpp=5.320 irrad=1.000 pf=1.0000 vminpu=0.9000 LimitCurrent=yes %cutin=20.00 %cutout=20.00
new PVSystem.pv_160 phases=2 bus1=sx2001311a.1.2 conn=w kva=20.060 kv=0.208 pmpp=16.040 irrad=1.000 pf=1.0000 vminpu=0.9000 LimitCurrent=yes %cutin=20.00 %cutout=20.00
new PVSystem.pv_1157 phases=2 bus1=sx2710521a.2.1 conn=w kva=11.100 kv=0.208 pmpp=8.870 irrad=1.000 pf=1.0000 vminpu=0.9000 LimitCurrent=yes %cutin=20.00 %cutout=20.00
new PVSystem.pv_48 phases=2 bus1=sx2000711b.2.1 conn=w kva=8.800 kv=0.208 pmpp=7.040 irrad=1.000 pf=1.0000 vminpu=0.9000 LimitCurrent=yes %cutin=20.00 %cutout=20.00
new PVSystem.pv_1035 phases=2 bus1=sx2935551c.2.1 conn=w kva=7.600 kv=0.208 pmpp=6.100 irrad=1.000 pf=1.0000 vminpu=0.9000 LimitCurrent=yes %cutin=20.00 %cutout=20.00
new PVSystem.pv_162 phases=2 bus1=sx2001312a.2.1 conn=w kva=18.170 kv=0.208 pmpp=14.540 irrad=1.000 pf=1.0000 vminpu=0.9000 LimitCurrent=yes %cutin=20.00 %cutout=20.00
new PVSystem.pv_1155 phases=2 bus1=sx3252336b.2.1 conn=w kva=18.300 kv=0.208 pmpp=14.590 irrad=1.000 pf=1.0000 vminpu=0.9000 LimitCurrent=yes %cutin=20.00 %cutout=20.00
new PVSystem.pv_1033 phases=2 bus1=sx2710510c.2.1 conn=w kva=5.100 kv=0.208 pmpp=4.070 irrad=1.000 pf=1.0000 vminpu=0.9000 LimitCurrent=yes %cutin=20.00 %cutout=20.00
new PVSystem.pv_164 phases=2 bus1=sx2001313a.2.1 conn=w kva=27.960 kv=0.208 pmpp=22.370 irrad=1.000 pf=1.0000 vminpu=0.9000 LimitCurrent=yes %cutin=20.00 %cutout=20.00
new PVSystem.pv_1019 phases=2 bus1=sx2841636b.1.2 conn=w kva=7.300 kv=0.208 pmpp=5.840 irrad=1.000 pf=1.0000 vminpu=0.9000 LimitCurrent=yes %cutin=20.00 %cutout=20.00
new PVSystem.pv_1021 phases=2 bus1=sx2955005b.1.2 conn=w kva=7.300 kv=0.208 pmpp=5.840 irrad=1.000 pf=1.0000 vminpu=0.9000 LimitCurrent=yes %cutin=20.00 %cutout=20.00
new PVSystem.pv_134 phases=2 bus1=sx2001212c.2.1 conn=w kva=22.350 kv=0.208 pmpp=17.880 irrad=1.000 pf=1.0000 vminpu=0.9000 LimitCurrent=yes %cutin=20.00 %cutout=20.00
new PVSystem.pv_1141 phases=2 bus1=sx2766750c.1.2 conn=w kva=19.100 kv=0.208 pmpp=15.260 irrad=1.000 pf=1.0000 vminpu=0.9000 LimitCurrent=yes %cutin=20.00 %cutout=20.00
new PVSystem.pv_136 phases=2 bus1=sx2001213c.1.2 conn=w kva=22.600 kv=0.208 pmpp=18.080 irrad=1.000 pf=1.0000 vminpu=0.9000 LimitCurrent=yes %cutin=20.00 %cutout=20.00
new PVSystem.pv_138 phases=2 bus1=sx2001214c.1.2 conn=w kva=21.100 kv=0.208 pmpp=16.870 irrad=1.000 pf=1.0000 vminpu=0.9000 LimitCurrent=yes %cutin=20.00 %cutout=20.00
new PVSystem.pv_30 phases=2 bus1=sx2000702b.2.1 conn=w kva=13.160 kv=0.208 pmpp=10.520 irrad=1.000 pf=1.0000 vminpu=0.9000 LimitCurrent=yes %cutin=20.00 %cutout=20.00
new PVSystem.pv_1029 phases=2 bus1=sx2804252a.2.1 conn=w kva=11.100 kv=0.208 pmpp=8.870 irrad=1.000 pf=1.0000 vminpu=0.9000 LimitCurrent=yes %cutin=20.00 %cutout=20.00
new PVSystem.pv_1149 phases=2 bus1=sx2992657a.1.2 conn=w kva=11.100 kv=0.208 pmpp=8.870 irrad=1.000 pf=1.0000 vminpu=0.9000 LimitCurrent=yes %cutin=20.00 %cutout=20.00
new PVSystem.pv_32 phases=2 bus1=sx2000703b.1.2 conn=w kva=11.920 kv=0.208 pmpp=9.540 irrad=1.000 pf=1.0000 vminpu=0.9000 LimitCurrent=yes %cutin=20.00 %cutout=20.00
new PVSystem.pv_1027 phases=2 bus1=sx2674051a.1.2 conn=w kva=6.600 kv=0.208 pmpp=5.320 irrad=1.000 pf=1.0000 vminpu=0.9000 LimitCurrent=yes %cutin=20.00 %cutout=20.00
new PVSystem.pv_1147 phases=2 bus1=sx2822867b.2.1 conn=w kva=7.300 kv=0.208 pmpp=5.840 irrad=1.000 pf=1.0000 vminpu=0.9000 LimitCurrent=yes %cutin=20.00 %cutout=20.00
new PVSystem.pv_34 phases=2 bus1=sx2000704b.1.2 conn=w kva=12.780 kv=0.208 pmpp=10.220 irrad=1.000 pf=1.0000 vminpu=0.9000 LimitCurrent=yes %cutin=20.00 %cutout=20.00
new PVSystem.pv_1025 phases=2 bus1=sx3048965b.2.1 conn=w kva=18.200 kv=0.208 pmpp=14.590 irrad=1.000 pf=1.0000 vminpu=0.9000 LimitCurrent=yes %cutin=20.00 %cutout=20.00
new PVSystem.pv_130 phases=2 bus1=sx2001210c.2.1 conn=w kva=16.800 kv=0.208 pmpp=13.440 irrad=1.000 pf=1.0000 vminpu=0.9000 LimitCurrent=yes %cutin=20.00 %cutout=20.00
new PVSystem.pv_1145 phases=2 bus1=sx3235243c.1.2 conn=w kva=12.700 kv=0.208 pmpp=10.170 irrad=1.000 pf=1.0000 vminpu=0.9000 LimitCurrent=yes %cutin=20.00 %cutout=20.00
new PVSystem.pv_36 phases=2 bus1=sx2000705b.2.1 conn=w kva=12.090 kv=0.208 pmpp=9.670 irrad=1.000 pf=1.0000 vminpu=0.9000 LimitCurrent=yes %cutin=20.00 %cutout=20.00
new PVSystem.pv_1023 phases=2 bus1=sx3254214b.2.1 conn=w kva=12.200 kv=0.208 pmpp=9.730 irrad=1.000 pf=1.0000 vminpu=0.9000 LimitCurrent=yes %cutin=20.00 %cutout=20.00
new PVSystem.pv_132 phases=2 bus1=sx2001211c.1.2 conn=w kva=29.270 kv=0.208 pmpp=23.420 irrad=1.000 pf=1.0000 vminpu=0.9000 LimitCurrent=yes %cutin=20.00 %cutout=20.00
new PVSystem.pv_1143 phases=2 bus1=sx2973148a.2.1 conn=w kva=11.100 kv=0.208 pmpp=8.870 irrad=1.000 pf=1.0000 vminpu=0.9000 LimitCurrent=yes %cutin=20.00 %cutout=20.00
new PVSystem.pv_38 phases=2 bus1=sx2000706b.1.2 conn=w kva=14.730 kv=0.208 pmpp=11.790 irrad=1.000 pf=1.0000 vminpu=0.9000 LimitCurrent=yes %cutin=20.00 %cutout=20.00
new PVSystem.pv_18 phases=2 bus1=sx2000410a.1.2 conn=w kva=18.120 kv=0.208 pmpp=14.490 irrad=1.000 pf=1.0000 vminpu=0.9000 LimitCurrent=yes %cutin=20.00 %cutout=20.00
new PVSystem.pv_1009 phases=2 bus1=sx2691946b.2.1 conn=w kva=7.300 kv=0.208 pmpp=5.850 irrad=1.000 pf=1.0000 vminpu=0.9000 LimitCurrent=yes %cutin=20.00 %cutout=20.00
new PVSystem.pv_1129 phases=2 bus1=sx3104134c.2.1 conn=w kva=12.700 kv=0.208 pmpp=10.170 irrad=1.000 pf=1.0000 vminpu=0.9000 LimitCurrent=yes %cutin=20.00 %cutout=20.00
new PVSystem.pv_1131 phases=2 bus1=sx2955077c.2.1 conn=w kva=12.700 kv=0.208 pmpp=10.170 irrad=1.000 pf=1.0000 vminpu=0.9000 LimitCurrent=yes %cutin=20.00 %cutout=20.00
new PVSystem.pv_1097 phases=2 bus1=sx3067478a.1.2 conn=w kva=16.700 kv=0.208 pmpp=13.300 irrad=1.000 pf=1.0000 vminpu=0.9000 LimitCurrent=yes %cutin=20.00 %cutout=20.00
new PVSystem.pv_144 phases=2 bus1=sx2001303a.1.2 conn=w kva=16.150 kv=0.208 pmpp=12.910 irrad=1.000 pf=1.0000 vminpu=0.9000 LimitCurrent=yes %cutin=20.00 %cutout=20.00
new PVSystem.pv_1095 phases=2 bus1=sx2767409b.2.1 conn=w kva=12.100 kv=0.208 pmpp=9.730 irrad=1.000 pf=1.0000 vminpu=0.9000 LimitCurrent=yes %cutin=20.00 %cutout=20.00
new PVSystem.pv_146 phases=2 bus1=sx2001304a.1.2 conn=w kva=12.030 kv=0.208 pmpp=9.620 irrad=1.000 pf=1.0000 vminpu=0.9000 LimitCurrent=yes %cutin=20.00 %cutout=20.00
new PVSystem.pv_1093 phases=2 bus1=sx2936279c.2.1 conn=w kva=12.700 kv=0.208 pmpp=10.170 irrad=1.000 pf=1.0000 vminpu=0.9000 LimitCurrent=yes %cutin=20.00 %cutout=20.00
new PVSystem.pv_148 phases=2 bus1=sx2001305a.1.2 conn=w kva=13.570 kv=0.208 pmpp=10.860 irrad=1.000 pf=1.0000 vminpu=0.9000 LimitCurrent=yes %cutin=20.00 %cutout=20.00
new PVSystem.pv_20 phases=2 bus1=sx2000411a.2.1 conn=w kva=12.480 kv=0.208 pmpp=9.980 irrad=1.000 pf=1.0000 vminpu=0.9000 LimitCurrent=yes %cutin=20.00 %cutout=20.00
new PVSystem.pv_1091 phases=2 bus1=sx3254231a.2.1 conn=w kva=4.500 kv=0.208 pmpp=3.550 irrad=1.000 pf=1.0000 vminpu=0.9000 LimitCurrent=yes %cutin=20.00 %cutout=20.00
new PVSystem.pv_1139 phases=2 bus1=sx3011293c.1.2 conn=w kva=25.400 kv=0.208 pmpp=20.340 irrad=1.000 pf=1.0000 vminpu=0.9000 LimitCurrent=yes %cutin=20.00 %cutout=20.00
new PVSystem.pv_22 phases=2 bus1=sx2000412a.1.2 conn=w kva=24.520 kv=0.208 pmpp=19.620 irrad=1.000 pf=1.0000 vminpu=0.9000 LimitCurrent=yes %cutin=20.00 %cutout=20.00
new PVSystem.pv_1017 phases=2 bus1=sx2861197c.2.1 conn=w kva=7.600 kv=0.208 pmpp=6.100 irrad=1.000 pf=1.0000 vminpu=0.9000 LimitCurrent=yes %cutin=20.00 %cutout=20.00
new PVSystem.pv_1137 phases=2 bus1=sx2841616a.2.1 conn=w kva=11.100 kv=0.208 pmpp=8.870 irrad=1.000 pf=1.0000 vminpu=0.9000 LimitCurrent=yes %cutin=20.00 %cutout=20.00
new PVSystem.pv_24 phases=2 bus1=sx2000413a.1.2 conn=w kva=13.290 kv=0.208 pmpp=10.630 irrad=1.000 pf=1.0000 vminpu=0.9000 LimitCurrent=yes %cutin=20.00 %cutout=20.00
new PVSystem.pv_1015 phases=2 bus1=sx3085410b.1.2 conn=w kva=7.300 kv=0.208 pmpp=5.840 irrad=1.000 pf=1.0000 vminpu=0.9000 LimitCurrent=yes %cutin=20.00 %cutout=20.00
new PVSystem.pv_1135 phases=2 bus1=sx2804283a.2.1 conn=w kva=11.100 kv=0.208 pmpp=8.870 irrad=1.000 pf=1.0000 vminpu=0.9000 LimitCurrent=yes %cutin=20.00 %cutout=20.00
new PVSystem.pv_26 phases=2 bus1=sx2000414a.2.1 conn=w kva=13.240 kv=0.208 pmpp=10.590 irrad=1.000 pf=1.0000 vminpu=0.9000 LimitCurrent=yes %cutin=20.00 %cutout=20.00
new PVSystem.pv_1013 phases=2 bus1=sx2710543c.2.1 conn=w kva=12.700 kv=0.208 pmpp=10.170 irrad=1.000 pf=1.0000 vminpu=0.9000 LimitCurrent=yes %cutin=20.00 %cutout=20.00
new PVSystem.pv_140 phases=2 bus1=sx2001215c.2.1 conn=w kva=26.730 kv=0.208 pmpp=21.390 irrad=1.000 pf=1.0000 vminpu=0.9000 LimitCurrent=yes %cutin=20.00 %cutout=20.00
new PVSystem.pv_1133 phases=2 bus1=sx2954350c.1.2 conn=w kva=7.600 kv=0.208 pmpp=6.100 irrad=1.000 pf=1.0000 vminpu=0.9000 LimitCurrent=yes %cutin=20.00 %cutout=20.00
new PVSystem.pv_28 phases=2 bus1=sx2000415a.2.1 conn=w kva=13.460 kv=0.208 pmpp=10.770 irrad=1.000 pf=1.0000 vminpu=0.9000 LimitCurrent=yes %cutin=20.00 %cutout=20.00
new PVSystem.pv_1011 phases=2 bus1=sx3010565c.1.2 conn=w kva=5.100 kv=0.208 pmpp=4.070 irrad=1.000 pf=1.0000 vminpu=0.9000 LimitCurrent=yes %cutin=20.00 %cutout=20.00
new PVSystem.pv_1099 phases=2 bus1=sx2691945c.1.2 conn=w kva=12.700 kv=0.208 pmpp=10.170 irrad=1.000 pf=1.0000 vminpu=0.9000 LimitCurrent=yes %cutin=20.00 %cutout=20.00
new PVSystem.pv_142 phases=2 bus1=sx2001302a.2.1 conn=w kva=11.020 kv=0.208 pmpp=8.820 irrad=1.000 pf=1.0000 vminpu=0.9000 LimitCurrent=yes %cutin=20.00 %cutout=20.00
new PVSystem.pv_1119 phases=2 bus1=sx2786274c.2.1 conn=w kva=12.700 kv=0.208 pmpp=10.170 irrad=1.000 pf=1.0000 vminpu=0.9000 LimitCurrent=yes %cutin=20.00 %cutout=20.00
new PVSystem.pv_108 phases=2 bus1=sx2001013b.1.2 conn=w kva=21.960 kv=0.208 pmpp=17.570 irrad=1.000 pf=1.0000 vminpu=0.9000 LimitCurrent=yes %cutin=20.00 %cutout=20.00
new PVSystem.pv_1087 phases=2 bus1=sx3160106a.2.1 conn=w kva=11.100 kv=0.208 pmpp=8.870 irrad=1.000 pf=1.0000 vminpu=0.9000 LimitCurrent=yes %cutin=20.00 %cutout=20.00
new PVSystem.pv_112 phases=2 bus1=sx2001015b.1.2 conn=w kva=30.260 kv=0.208 pmpp=24.220 irrad=1.000 pf=1.0000 vminpu=0.9000 LimitCurrent=yes %cutin=20.00 %cutout=20.00
new PVSystem.pv_90 phases=2 bus1=sx2001004b.2.1 conn=w kva=12.140 kv=0.208 pmpp=9.710 irrad=1.000 pf=1.0000 vminpu=0.9000 LimitCurrent=yes %cutin=20.00 %cutout=20.00
new PVSystem.pv_1085 phases=2 bus1=sx2897772a.2.1 conn=w kva=6.600 kv=0.208 pmpp=5.320 irrad=1.000 pf=1.0000 vminpu=0.9000 LimitCurrent=yes %cutin=20.00 %cutout=20.00
new PVSystem.pv_114 phases=2 bus1=sx2001202c.1.2 conn=w kva=15.530 kv=0.208 pmpp=12.430 irrad=1.000 pf=1.0000 vminpu=0.9000 LimitCurrent=yes %cutin=20.00 %cutout=20.00
new PVSystem.pv_92 phases=2 bus1=sx2001005b.2.1 conn=w kva=13.850 kv=0.208 pmpp=11.080 irrad=1.000 pf=1.0000 vminpu=0.9000 LimitCurrent=yes %cutin=20.00 %cutout=20.00
new PVSystem.pv_1083 phases=2 bus1=sx3179650b.2.1 conn=w kva=7.300 kv=0.208 pmpp=5.840 irrad=1.000 pf=1.0000 vminpu=0.9000 LimitCurrent=yes %cutin=20.00 %cutout=20.00
new PVSystem.pv_116 phases=2 bus1=sx2001203c.1.2 conn=w kva=20.030 kv=0.208 pmpp=16.020 irrad=1.000 pf=1.0000 vminpu=0.9000 LimitCurrent=yes %cutin=20.00 %cutout=20.00
new PVSystem.pv_94 phases=2 bus1=sx2001006b.2.1 conn=w kva=12.190 kv=0.208 pmpp=9.760 irrad=1.000 pf=1.0000 vminpu=0.9000 LimitCurrent=yes %cutin=20.00 %cutout=20.00
new PVSystem.pvfarm1 phases=3 bus1=m1047pv-3.1.2.3 conn=w kva=1500.000 kv=12.470 pmpp=1000.000 irrad=1.000 pf=1.0000 vminpu=0.9000 LimitCurrent=yes %cutin=20.00 %cutout=20.00
new PVSystem.pv_1081 phases=2 bus1=sx2897767c.1.2 conn=w kva=12.700 kv=0.208 pmpp=10.170 irrad=1.000 pf=1.0000 vminpu=0.9000 LimitCurrent=yes %cutin=20.00 %cutout=20.00
new PVSystem.pv_118 phases=2 bus1=sx2001204c.1.2 conn=w kva=16.180 kv=0.208 pmpp=12.950 irrad=1.000 pf=1.0000 vminpu=0.9000 LimitCurrent=yes %cutin=20.00 %cutout=20.00
new PVSystem.pv_96 phases=2 bus1=sx2001007b.1.2 conn=w kva=11.710 kv=0.208 pmpp=9.360 irrad=1.000 pf=1.0000 vminpu=0.9000 LimitCurrent=yes %cutin=20.00 %cutout=20.00
new PVSystem.pv_1007 phases=2 bus1=sx3104126c.2.1 conn=w kva=5.100 kv=0.208 pmpp=4.070 irrad=1.000 pf=1.0000 vminpu=0.9000 LimitCurrent=yes %cutin=20.00 %cutout=20.00
new PVSystem.pv_10 phases=2 bus1=sx2000406a.1.2 conn=w kva=15.740 kv=0.208 pmpp=12.600 irrad=1.000 pf=1.0000 vminpu=0.9000 LimitCurrent=yes %cutin=20.00 %cutout=20.00
new PVSystem.pv_1127 phases=2 bus1=sx2936214a.1.2 conn=w kva=11.100 kv=0.208 pmpp=8.870 irrad=1.000 pf=1.0000 vminpu=0.9000 LimitCurrent=yes %cutin=20.00 %cutout=20.00
new PVSystem.pv_98 phases=2 bus1=sx2001008b.2.1 conn=w kva=15.900 kv=0.208 pmpp=12.720 irrad=1.000 pf=1.0000 vminpu=0.9000 LimitCurrent=yes %cutin=20.00 %cutout=20.00
new PVSystem.pv_1005 phases=2 bus1=sx3045895c.1.2 conn=w kva=12.700 kv=0.208 pmpp=10.170 irrad=1.000 pf=1.0000 vminpu=0.9000 LimitCurrent=yes %cutin=20.00 %cutout=20.00
new PVSystem.pv_1125 phases=2 bus1=sx3160862c.2.1 conn=w kva=7.600 kv=0.208 pmpp=6.100 irrad=1.000 pf=1.0000 vminpu=0.9000 LimitCurrent=yes %cutin=20.00 %cutout=20.00
new PVSystem.pv_12 phases=2 bus1=sx2000407a.1.2 conn=w kva=14.900 kv=0.208 pmpp=11.920 irrad=1.000 pf=1.0000 vminpu=0.9000 LimitCurrent=yes %cutin=20.00 %cutout=20.00
new PVSystem.pv_1003 phases=2 bus1=sx2673331b.1.2 conn=w kva=24.300 kv=0.208 pmpp=19.450 irrad=1.000 pf=1.0000 vminpu=0.9000 LimitCurrent=yes %cutin=20.00 %cutout=20.00
new PVSystem.pv_1123 phases=2 bus1=sx2805036b.1.2 conn=w kva=4.800 kv=0.208 pmpp=3.890 irrad=1.000 pf=1.0000 vminpu=0.9000 LimitCurrent=yes %cutin=20.00 %cutout=20.00
new PVSystem.pv_14 phases=2 bus1=sx2000408a.1.2 conn=w kva=15.550 kv=0.208 pmpp=12.440 irrad=1.000 pf=1.0000 vminpu=0.9000 LimitCurrent=yes %cutin=20.00 %cutout=20.00
new PVSystem.pv_1001 phases=2 bus1=sx3216348a.2.1 conn=w kva=6.600 kv=0.208 pmpp=5.320 irrad=1.000 pf=1.0000 vminpu=0.9000 LimitCurrent=yes %cutin=20.00 %cutout=20.00
new PVSystem.pv_1089 phases=2 bus1=sx3143999a.1.2 conn=w kva=11.100 kv=0.208 pmpp=8.870 irrad=1.000 pf=1.0000 vminpu=0.9000 LimitCurrent=yes %cutin=20.00 %cutout=20.00
new PVSystem.pv_110 phases=2 bus1=sx2001014b.1.2 conn=w kva=35.410 kv=0.208 pmpp=28.330 irrad=1.000 pf=1.0000 vminpu=0.9000 LimitCurrent=yes %cutin=20.00 %cutout=20.00
new PVSystem.pv_1121 phases=2 bus1=sx3217064b.2.1 conn=w kva=12.200 kv=0.208 pmpp=9.730 irrad=1.000 pf=1.0000 vminpu=0.9000 LimitCurrent=yes %cutin=20.00 %cutout=20.00
new PVSystem.pv_16 phases=2 bus1=sx2000409a.1.2 conn=w kva=16.230 kv=0.208 pmpp=12.980 irrad=1.000 pf=1.0000 vminpu=0.9000 LimitCurrent=yes %cutin=20.00 %cutout=20.00
new PVSystem.pv_1109 phases=2 bus1=sx3178997c.1.2 conn=w kva=7.700 kv=0.208 pmpp=6.100 irrad=1.000 pf=1.0000 vminpu=0.9000 LimitCurrent=yes %cutin=20.00 %cutout=20.00
new PVSystem.pv_1107 phases=2 bus1=sx3082992a.2.1 conn=w kva=6.700 kv=0.208 pmpp=5.320 irrad=1.000 pf=1.0000 vminpu=0.9000 LimitCurrent=yes %cutin=20.00 %cutout=20.00
new PVSystem.pv_80 phases=2 bus1=sx2000913c.1.2 conn=w kva=14.060 kv=0.208 pmpp=11.250 irrad=1.000 pf=1.0000 vminpu=0.9000 LimitCurrent=yes %cutin=20.00 %cutout=20.00
new PVSystem.pv_1075 phases=2 bus1=sx2673319c.1.2 conn=w kva=7.600 kv=0.208 pmpp=6.100 irrad=1.000 pf=1.0000 vminpu=0.9000 LimitCurrent=yes %cutin=20.00 %cutout=20.00
new PVSystem.pv_122 phases=2 bus1=sx2001206c.2.1 conn=w kva=13.170 kv=0.208 pmpp=10.530 irrad=1.000 pf=1.0000 vminpu=0.9000 LimitCurrent=yes %cutin=20.00 %cutout=20.00
new PVSystem.pv_82 phases=2 bus1=sx2000914c.2.1 conn=w kva=14.060 kv=0.208 pmpp=11.250 irrad=1.000 pf=1.0000 vminpu=0.9000 LimitCurrent=yes %cutin=20.00 %cutout=20.00
new PVSystem.pv_1073 phases=2 bus1=sx3197641a.2.1 conn=w kva=6.700 kv=0.208 pmpp=5.320 irrad=1.000 pf=1.0000 vminpu=0.9000 LimitCurrent=yes %cutin=20.00 %cutout=20.00
new PVSystem.pv_124 phases=2 bus1=sx2001207c.2.1 conn=w kva=11.060 kv=0.208 pmpp=8.850 irrad=1.000 pf=1.0000 vminpu=0.9000 LimitCurrent=yes %cutin=20.00 %cutout=20.00
new PVSystem.pv_84 phases=2 bus1=sx2000915c.2.1 conn=w kva=14.060 kv=0.208 pmpp=11.250 irrad=1.000 pf=1.0000 vminpu=0.9000 LimitCurrent=yes %cutin=20.00 %cutout=20.00
new PVSystem.pv_1071 phases=2 bus1=sx2841627a.2.1 conn=w kva=6.700 kv=0.208 pmpp=5.320 irrad=1.000 pf=1.0000 vminpu=0.9000 LimitCurrent=yes %cutin=20.00 %cutout=20.00
new PVSystem.pv_126 phases=2 bus1=sx2001208c.1.2 conn=w kva=14.850 kv=0.208 pmpp=11.890 irrad=1.000 pf=1.0000 vminpu=0.9000 LimitCurrent=yes %cutin=20.00 %cutout=20.00
new PVSystem.pv_86 phases=2 bus1=sx2001002b.1.2 conn=w kva=14.060 kv=0.208 pmpp=11.250 irrad=1.000 pf=1.0000 vminpu=0.9000 LimitCurrent=yes %cutin=20.00 %cutout=20.00
new PVSystem.pv_128 phases=2 bus1=sx2001209c.2.1 conn=w kva=17.410 kv=0.208 pmpp=13.930 irrad=1.000 pf=1.0000 vminpu=0.9000 LimitCurrent=yes %cutin=20.00 %cutout=20.00
new PVSystem.pv_1117 phases=2 bus1=sx2897768c.1.2 conn=w kva=12.800 kv=0.208 pmpp=10.170 irrad=1.000 pf=1.0000 vminpu=0.9000 LimitCurrent=yes %cutin=20.00 %cutout=20.00
new PVSystem.pv_88 phases=2 bus1=sx2001003b.2.1 conn=w kva=15.700 kv=0.208 pmpp=12.560 irrad=1.000 pf=1.0000 vminpu=0.9000 LimitCurrent=yes %cutin=20.00 %cutout=20.00
new PVSystem.pv_1115 phases=2 bus1=sx3728043a.1.2 conn=w kva=16.700 kv=0.208 pmpp=13.300 irrad=1.000 pf=1.0000 vminpu=0.9000 LimitCurrent=yes %cutin=20.00 %cutout=20.00
new PVSystem.pv_1113 phases=2 bus1=sx3215203a.1.2 conn=w kva=22.100 kv=0.208 pmpp=17.740 irrad=1.000 pf=1.0000 vminpu=0.9000 LimitCurrent=yes %cutin=20.00 %cutout=20.00
new PVSystem.pv_1079 phases=2 bus1=sx2891575c.1.2 conn=w kva=7.600 kv=0.208 pmpp=6.100 irrad=1.000 pf=1.0000 vminpu=0.9000 LimitCurrent=yes %cutin=20.00 %cutout=20.00
new PVSystem.pv_1111 phases=2 bus1=sx3233412a.1.2 conn=w kva=22.200 kv=0.208 pmpp=17.740 irrad=1.000 pf=1.0000 vminpu=0.9000 LimitCurrent=yes %cutin=20.00 %cutout=20.00
new PVSystem.pv_1077 phases=2 bus1=sx2991943c.1.2 conn=w kva=12.800 kv=0.208 pmpp=10.170 irrad=1.000 pf=1.0000 vminpu=0.9000 LimitCurrent=yes %cutin=20.00 %cutout=20.00
new PVSystem.pv_120 phases=2 bus1=sx2001205c.1.2 conn=w kva=10.700 kv=0.208 pmpp=8.560 irrad=1.000 pf=1.0000 vminpu=0.9000 LimitCurrent=yes %cutin=20.00 %cutout=20.00
new PVSystem.pv_1065 phases=2 bus1=sx2785523c.1.2 conn=w kva=7.700 kv=0.208 pmpp=6.100 irrad=1.000 pf=1.0000 vminpu=0.9000 LimitCurrent=yes %cutin=20.00 %cutout=20.00
new PVSystem.pv_1063 phases=2 bus1=sx2814529a.2.1 conn=w kva=22.100 kv=0.208 pmpp=17.740 irrad=1.000 pf=1.0000 vminpu=0.9000 LimitCurrent=yes %cutin=20.00 %cutout=20.00
new PVSystem.pv_1183 phases=2 bus1=sx2990098a.2.1 conn=w kva=22.170 kv=0.208 pmpp=17.740 irrad=1.000 pf=1.0000 vminpu=0.9000 LimitCurrent=yes %cutin=20.00 %cutout=20.00
new PVSystem.pv_70 phases=2 bus1=sx2000908c.2.1 conn=w kva=14.060 kv=0.208 pmpp=11.250 irrad=1.000 pf=1.0000 vminpu=0.9000 LimitCurrent=yes %cutin=20.00 %cutout=20.00
new PVSystem.pv_1061 phases=2 bus1=sx2992556a.2.1 conn=w kva=7.600 kv=0.208 pmpp=6.100 irrad=1.000 pf=1.0000 vminpu=0.9000 LimitCurrent=yes %cutin=20.00 %cutout=20.00
new PVSystem.pv_1181 phases=2 bus1=sx2879076c.1.2 conn=w kva=5.100 kv=0.208 pmpp=4.070 irrad=1.000 pf=1.0000 vminpu=0.9000 LimitCurrent=yes %cutin=20.00 %cutout=20.00
new PVSystem.pv_72 phases=2 bus1=sx2000909c.1.2 conn=w kva=14.060 kv=0.208 pmpp=11.250 irrad=1.000 pf=1.0000 vminpu=0.9000 LimitCurrent=yes %cutin=20.00 %cutout=20.00
new PVSystem.pv_74 phases=2 bus1=sx2000910c.2.1 conn=w kva=14.060 kv=0.208 pmpp=11.250 irrad=1.000 pf=1.0000 vminpu=0.9000 LimitCurrent=yes %cutin=20.00 %cutout=20.00
new PVSystem.pv_170 phases=2 bus1=sx2001400c.2.1 conn=w kva=50.650 kv=0.208 pmpp=40.520 irrad=1.000 pf=1.0000 vminpu=0.9000 LimitCurrent=yes %cutin=20.00 %cutout=20.00
new PVSystem.pv_1105 phases=2 bus1=sx2785513a.2.1 conn=w kva=11.000 kv=0.208 pmpp=8.870 irrad=1.000 pf=1.0000 vminpu=0.9000 LimitCurrent=yes %cutin=20.00 %cutout=20.00
new PVSystem.pv_76 phases=2 bus1=sx2000911c.1.2 conn=w kva=14.060 kv=0.208 pmpp=11.250 irrad=1.000 pf=1.0000 vminpu=0.9000 LimitCurrent=yes %cutin=20.00 %cutout=20.00
new PVSystem.pv_1103 phases=2 bus1=sx2785538a.1.2 conn=w kva=11.100 kv=0.208 pmpp=8.870 irrad=1.000 pf=1.0000 vminpu=0.9000 LimitCurrent=yes %cutin=20.00 %cutout=20.00
new PVSystem.pv_78 phases=2 bus1=sx2000912c.2.1 conn=w kva=14.060 kv=0.208 pmpp=11.250 irrad=1.000 pf=1.0000 vminpu=0.9000 LimitCurrent=yes %cutin=20.00 %cutout=20.00
new PVSystem.pv_1069 phases=2 bus1=sx3216368c.1.2 conn=w kva=7.700 kv=0.208 pmpp=6.100 irrad=1.000 pf=1.0000 vminpu=0.9000 LimitCurrent=yes %cutin=20.00 %cutout=20.00
new PVSystem.pv_1101 phases=2 bus1=sx3104132a.2.1 conn=w kva=6.600 kv=0.208 pmpp=5.320 irrad=1.000 pf=1.0000 vminpu=0.9000 LimitCurrent=yes %cutin=20.00 %cutout=20.00
new PVSystem.pv_1067 phases=2 bus1=sx2841638c.1.2 conn=w kva=7.600 kv=0.208 pmpp=6.100 irrad=1.000 pf=1.0000 vminpu=0.9000 LimitCurrent=yes %cutin=20.00 %cutout=20.00
new PVSystem.pv_1175 phases=2 bus1=sx2691951c.1.2 conn=w kva=12.700 kv=0.208 pmpp=10.170 irrad=1.000 pf=1.0000 vminpu=0.9000 LimitCurrent=yes %cutin=20.00 %cutout=20.00
new PVSystem.pv_100 phases=2 bus1=sx2001009b.1.2 conn=w kva=17.460 kv=0.208 pmpp=13.970 irrad=1.000 pf=1.0000 vminpu=0.9000 LimitCurrent=yes %cutin=20.00 %cutout=20.00
new PVSystem.pv_1053 phases=2 bus1=sx2710544a.2.1 conn=w kva=6.700 kv=0.208 pmpp=5.320 irrad=1.000 pf=1.0000 vminpu=0.9000 LimitCurrent=yes %cutin=20.00 %cutout=20.00
new PVSystem.pv_1173 phases=2 bus1=sx2897789b.1.2 conn=w kva=7.300 kv=0.208 pmpp=5.840 irrad=1.000 pf=1.0000 vminpu=0.9000 LimitCurrent=yes %cutin=20.00 %cutout=20.00
new PVSystem.pv_60 phases=2 bus1=sx2000903c.1.2 conn=w kva=15.700 kv=0.208 pmpp=12.560 irrad=1.000 pf=1.0000 vminpu=0.9000 LimitCurrent=yes %cutin=20.00 %cutout=20.00
new PVSystem.pv_102 phases=2 bus1=sx2001010b.2.1 conn=w kva=21.120 kv=0.208 pmpp=16.900 irrad=1.000 pf=1.0000 vminpu=0.9000 LimitCurrent=yes %cutin=20.00 %cutout=20.00
new PVSystem.pv_1051 phases=2 bus1=sx3048937c.2.1 conn=w kva=7.600 kv=0.208 pmpp=6.100 irrad=1.000 pf=1.0000 vminpu=0.9000 LimitCurrent=yes %cutin=20.00 %cutout=20.00
new PVSystem.pv_1171 phases=2 bus1=sx3198347c.2.1 conn=w kva=7.600 kv=0.208 pmpp=6.100 irrad=1.000 pf=1.0000 vminpu=0.9000 LimitCurrent=yes %cutin=20.00 %cutout=20.00
new PVSystem.pv_62 phases=2 bus1=sx2000904c.2.1 conn=w kva=12.140 kv=0.208 pmpp=9.710 irrad=1.000 pf=1.0000 vminpu=0.9000 LimitCurrent=yes %cutin=20.00 %cutout=20.00
new PVSystem.pv_104 phases=2 bus1=sx2001011b.1.2 conn=w kva=9.350 kv=0.208 pmpp=7.480 irrad=1.000 pf=1.0000 vminpu=0.9000 LimitCurrent=yes %cutin=20.00 %cutout=20.00
new PVSystem.pv_64 phases=2 bus1=sx2000905c.2.1 conn=w kva=14.060 kv=0.208 pmpp=11.250 irrad=1.000 pf=1.0000 vminpu=0.9000 LimitCurrent=yes %cutin=20.00 %cutout=20.00
new PVSystem.pv_106 phases=2 bus1=sx2001012b.1.2 conn=w kva=17.200 kv=0.208 pmpp=13.750 irrad=1.000 pf=1.0000 vminpu=0.9000 LimitCurrent=yes %cutin=20.00 %cutout=20.00
new PVSystem.pv_66 phases=2 bus1=sx2000906c.1.2 conn=w kva=14.060 kv=0.208 pmpp=11.250 irrad=1.000 pf=1.0000 vminpu=0.9000 LimitCurrent=yes %cutin=20.00 %cutout=20.00
new PVSystem.pv_68 phases=2 bus1=sx2000907c.2.1 conn=w kva=14.060 kv=0.208 pmpp=11.250 irrad=1.000 pf=1.0000 vminpu=0.9000 LimitCurrent=yes %cutin=20.00 %cutout=20.00
new PVSystem.pv_1059 phases=2 bus1=sx2673318c.2.1 conn=w kva=12.700 kv=0.208 pmpp=10.170 irrad=1.000 pf=1.0000 vminpu=0.9000 LimitCurrent=yes %cutin=20.00 %cutout=20.00
new PVSystem.pv_1179 phases=2 bus1=sx3215203c.1.2 conn=w kva=25.500 kv=0.208 pmpp=20.340 irrad=1.000 pf=1.0000 vminpu=0.9000 LimitCurrent=yes %cutin=20.00 %cutout=20.00
new PVSystem.pv_1057 phases=2 bus1=sx3160113b.1.2 conn=w kva=12.100 kv=0.208 pmpp=9.730 irrad=1.000 pf=1.0000 vminpu=0.9000 LimitCurrent=yes %cutin=20.00 %cutout=20.00
new PVSystem.pv_1177 phases=2 bus1=sx2673308b.2.1 conn=w kva=18.300 kv=0.208 pmpp=14.590 irrad=1.000 pf=1.0000 vminpu=0.9000 LimitCurrent=yes %cutin=20.00 %cutout=20.00
new PVSystem.pv_1055 phases=2 bus1=sx2839305a.2.1 conn=w kva=6.700 kv=0.208 pmpp=5.330 irrad=1.000 pf=1.0000 vminpu=0.9000 LimitCurrent=yes %cutin=20.00 %cutout=20.00

new Storage.battery1 phases=3 bus1=m2001-ess1.1.2.3 conn=w kva=250.000 kwrated=250.000 kv=0.480 kwhrated=500.000 kwhstored=500.000 state=idling vminpu=0.9000 LimitCurrent=yes kw=0.00 %charge=100.00 %discharge=60.00
new Storage.battery2 phases=3 bus1=m2001-ess2.1.2.3 conn=w kva=250.000 kwrated=250.000 kv=0.480 kwhrated=500.000 kwhstored=500.000 state=idling vminpu=0.9000 LimitCurrent=yes kw=0.00 %charge=100.00 %discharge=60.00

new Generator.diesel620 phases=3 bus1=m1209-dies1.1.2.3 model=1 kv=0.48 kva=775.00 kw=0.00 kvar=0.00
new Generator.windturb-1 phases=3 bus1=m1186-wt1.1.2.3 model=1 kv=0.48 kva=75.00 kw=20.00 kvar=6.57
new Generator.microturb-1 phases=3 bus1=m2001-mt1.1.2.3 model=1 kv=0.48 kva=250.00 kw=50.00 kvar=16.43
new Generator.microturb-2 phases=3 bus1=m2001-mt2.1.2.3 model=1 kv=0.48 kva=250.00 kw=0.00 kvar=0.00
new Generator.windturb-3 phases=3 bus1=m1186-wt3.1.2.3 model=1 kv=0.48 kva=75.00 kw=20.00 kvar=6.57
new Generator.microturb-3 phases=3 bus1=m2001-mt3.1.2.3 model=1 kv=0.48 kva=250.00 kw=0.00 kvar=0.00
new Generator.steamgen1 phases=3 bus1=m1026chp-3.1.2.3 model=1 kv=12.47 kva=4000.00 kw=1000.00 kvar=-1049.35
new Generator.windturb-2 phases=3 bus1=m1186-wt2.1.2.3 model=1 kv=0.48 kva=75.00 kw=20.00 kvar=6.57
new Generator.microturb-4 phases=3 bus1=m1069-mt1.1.2.3 model=1 kv=0.48 kva=250.00 kw=100.00 kvar=32.87
new Generator.lngengine100 phases=3 bus1=m1142-lng1.1.2.3 model=1 kv=0.48 kva=125.00 kw=0.00 kvar=0.00
new Generator.diesel590 phases=3 bus1=m1089-dies1.1.2.3 model=1 kv=0.48 kva=737.00 kw=0.00 kvar=0.00
new Generator.lngengine1800 phases=3 bus1=m1089-lng1.1.2.3 model=1 kv=0.48 kva=2250.00 kw=0.00 kvar=0.00

new Load.21398646b0 phases=2 bus1=sx2973180b.2.1 conn=w kw=12.730 kvar=3.190 numcust=1 kv=0.208 model=1
new Load.225571845b0 phases=2 bus1=sx2948732b.1.2 conn=w kw=15.730 kvar=3.942 numcust=1 kv=0.208 model=1
new Load.138646a0 phases=2 bus1=sx2804251a.2.1 conn=w kw=3.550 kvar=0.890 numcust=1 kv=0.208 model=1
new Load.21396959a0 phases=2 bus1=sx3197638a.1.2 conn=w kw=8.870 kvar=2.223 numcust=1 kv=0.208 model=1
new Load.351019c0 phases=2 bus1=sx2767414c.2.1 conn=w kw=6.100 kvar=1.529 numcust=1 kv=0.208 model=1
new Load.138372c0 phases=2 bus1=sx3104126c.2.1 conn=w kw=7.070 kvar=1.772 numcust=1 kv=0.208 model=1
new Load.21399326c0 phases=2 bus1=sx2879092c.2.1 conn=w kw=60.170 kvar=15.080 numcust=1 kv=0.208 model=1
new Load.251859c0 phases=2 bus1=sx2952007c.1.2 conn=w kw=10.170 kvar=2.549 numcust=1 kv=0.208 model=1
new Load.356012a0 phases=2 bus1=sx2841615a.2.1 conn=w kw=5.320 kvar=1.333 numcust=1 kv=0.208 model=1
new Load.2000704b0 phases=2 bus1=sx2000704b.2.1 conn=w kw=10.224 kvar=5.794 numcust=1 kv=0.208 model=1
new Load.302509c0 phases=2 bus1=sx2804261c.1.2 conn=w kw=6.100 kvar=1.529 numcust=1 kv=0.208 model=1
new Load.337643c0 phases=2 bus1=sx2897806c.2.1 conn=w kw=6.100 kvar=1.529 numcust=1 kv=0.208 model=1
new Load.2001308a0 phases=2 bus1=sx2001308a.2.1 conn=w kw=14.641 kvar=8.298 numcust=1 kv=0.208 model=1
new Load.21197413c0 phases=2 bus1=sx3141411c.2.1 conn=w kw=30.520 kvar=7.649 numcust=1 kv=0.208 model=1
new Load.2224237653a0 phases=2 bus1=sx3649302a.1.2 conn=w kw=16.300 kvar=4.085 numcust=1 kv=0.208 model=1
new Load.323387b0 phases=2 bus1=sx2690941b.1.2 conn=w kw=9.730 kvar=2.439 numcust=1 kv=0.208 model=1
new Load.227411655c0 phases=2 bus1=sx2806553c.2.1 conn=w kw=10.170 kvar=2.549 numcust=1 kv=0.208 model=1
new Load.338913b0 phases=2 bus1=sx2804255b.1.2 conn=w kw=9.730 kvar=2.439 numcust=1 kv=0.208 model=1
new Load.339047a0 phases=2 bus1=sx2973148a.2.1 conn=w kw=8.870 kvar=2.223 numcust=1 kv=0.208 model=1
new Load.355598b0 phases=2 bus1=sx2804245b.1.2 conn=w kw=9.730 kvar=2.439 numcust=1 kv=0.208 model=1
new Load.138470c0 phases=2 bus1=sx2766717c.2.1 conn=w kw=4.070 kvar=1.020 numcust=1 kv=0.208 model=1
new Load.2120195b0 phases=2 bus1=sx3048209b.1.2 conn=w kw=12.730 kvar=3.190 numcust=1 kv=0.208 model=1
new Load.21399762a0 phases=2 bus1=sx2879087a.1.2 conn=w kw=5.320 kvar=1.333 numcust=1 kv=0.208 model=1
new Load.21386754a0 phases=2 bus1=sx2766741a.1.2 conn=w kw=11.870 kvar=2.975 numcust=1 kv=0.208 model=1
new Load.21357984c0 phases=2 bus1=sx2897790c.2.1 conn=w kw=10.170 kvar=2.549 numcust=1 kv=0.208 model=1
new Load.2001010b0 phases=2 bus1=sx2001010b.2.1 conn=w kw=16.899 kvar=9.577 numcust=1 kv=0.208 model=1
new Load.355432c0 phases=2 bus1=sx3122837c.1.2 conn=w kw=15.260 kvar=3.825 numcust=1 kv=0.208 model=1
new Load.323398b0 phases=2 bus1=sx2710505b.1.2 conn=w kw=8.840 kvar=2.216 numcust=1 kv=0.208 model=1
new Load.337689b0 phases=2 bus1=sx2691949b.1.2 conn=w kw=9.730 kvar=2.439 numcust=1 kv=0.208 model=1
new Load.226115278a0 phases=2 bus1=sx3157167a.2.1 conn=w kw=5.320 kvar=1.333 numcust=1 kv=0.208 model=1
new Load.2000715b0 phases=2 bus1=sx2000715b.2.1 conn=w kw=11.247 kvar=6.374 numcust=1 kv=0.208 model=1
new Load.293483a0 phases=2 bus1=sx3104133a.2.1 conn=w kw=8.870 kvar=2.223 numcust=1 kv=0.208 model=1
new Load.337632c0 phases=2 bus1=sx2673307c.2.1 conn=w kw=9.100 kvar=2.281 numcust=1 kv=0.208 model=1
new Load.355587b0 phases=2 bus1=sx3104114b.1.2 conn=w kw=12.730 kvar=3.190 numcust=1 kv=0.208 model=1
new Load.338959c0 phases=2 bus1=sx2954344c.2.1 conn=w kw=13.170 kvar=3.301 numcust=1 kv=0.208 model=1
new Load.260461b0 phases=2 bus1=sx2861223b.2.1 conn=w kw=9.730 kvar=2.439 numcust=1 kv=0.208 model=1
new Load.260648a0 phases=2 bus1=sx2898522a.2.1 conn=w kw=8.870 kvar=2.223 numcust=1 kv=0.208 model=1
new Load.323267b0 phases=2 bus1=sx2710514b.2.1 conn=w kw=9.730 kvar=2.439 numcust=1 kv=0.208 model=1
new Load.21393486c0 phases=2 bus1=sx2898526c.1.2 conn=w kw=6.100 kvar=1.529 numcust=1 kv=0.208 model=1
new Load.226193662a0 phases=2 bus1=sx3195315a.1.2 conn=w kw=8.870 kvar=2.223 numcust=1 kv=0.208 model=1
new Load.356800a0 phases=2 bus1=sx3235946a.1.2 conn=w kw=11.870 kvar=2.975 numcust=1 kv=0.208 model=1
new Load.2128007c0 phases=2 bus1=sx2897766c.2.1 conn=w kw=10.170 kvar=2.549 numcust=1 kv=0.208 model=1
new Load.2223664050b0 phases=2 bus1=sx3315860b.2.1 conn=w kw=5.840 kvar=1.464 numcust=1 kv=0.208 model=1
new Load.391744b0 phases=2 bus1=sx2710537b.1.2 conn=w kw=9.730 kvar=2.439 numcust=1 kv=0.208 model=1
new Load.157716b0 phases=2 bus1=sx3179674b.1.2 conn=w kw=9.730 kvar=2.439 numcust=1 kv=0.208 model=1
new Load.21389831a0 phases=2 bus1=sx2674051a.2.1 conn=w kw=5.320 kvar=1.333 numcust=1 kv=0.208 model=1
new Load.21236413b0 phases=2 bus1=sx3085391b.2.1 conn=w kw=19.450 kvar=4.875 numcust=1 kv=0.208 model=1
new Load.338900a0 phases=2 bus1=sx2991908a.1.2 conn=w kw=8.320 kvar=2.085 numcust=1 kv=0.208 model=1
new Load.338924c0 phases=2 bus1=sx3104123c.1.2 conn=w kw=46.100 kvar=11.554 numcust=1 kv=0.208 model=1
new Load.338935b0 phases=2 bus1=sx2973160b.1.2 conn=w kw=5.840 kvar=1.464 numcust=1 kv=0.208 model=1
new Load.226193838c0 phases=2 bus1=sx3008237c.1.2 conn=w kw=10.170 kvar=2.549 numcust=1 kv=0.208 model=1
new Load.226191951b0 phases=2 bus1=sx2801895b.2.1 conn=w kw=9.730 kvar=2.439 numcust=1 kv=0.208 model=1
new Load.260496b0 phases=2 bus1=sx2879767b.1.2 conn=w kw=3.890 kvar=0.975 numcust=1 kv=0.208 model=1
new Load.260602b0 phases=2 bus1=sx2989566b.2.1 conn=w kw=5.840 kvar=1.464 numcust=1 kv=0.208 model=1
new Load.228532641a0 phases=2 bus1=sx3091052a.1.2 conn=w kw=13.300 kvar=3.333 numcust=1 kv=0.208 model=1
new Load.226191779c0 phases=2 bus1=sx2745799c.2.1 conn=w kw=10.170 kvar=2.549 numcust=1 kv=0.208 model=1
new Load.260637c0 phases=2 bus1=sx2842384c.2.1 conn=w kw=4.070 kvar=1.020 numcust=1 kv=0.208 model=1
new Load.323254b0 phases=2 bus1=sx2879068b.2.1 conn=w kw=9.730 kvar=2.439 numcust=1 kv=0.208 model=1
new Load.339012b0 phases=2 bus1=sx2973171b.1.2 conn=w kw=9.730 kvar=2.439 numcust=1 kv=0.208 model=1
new Load.355935a0 phases=2 bus1=sx2691973a.2.1 conn=w kw=5.320 kvar=1.333 numcust=1 kv=0.208 model=1
new Load.294809a0 phases=2 bus1=sx2952014a.1.2 conn=w kw=5.320 kvar=1.333 numcust=1 kv=0.208 model=1
new Load.391755b0 phases=2 bus1=sx3104130b.2.1 conn=w kw=9.730 kvar=2.439 numcust=1 kv=0.208 model=1
new Load.226192185a0 phases=2 bus1=sx3195310a.1.2 conn=w kw=8.870 kvar=2.223 numcust=1 kv=0.208 model=1
new Load.138679a0 phases=2 bus1=sx2710520a.1.2 conn=w kw=5.320 kvar=1.333 numcust=1 kv=0.208 model=1
new Load.138755b0 phases=2 bus1=sx2785520b.2.1 conn=w kw=3.890 kvar=0.975 numcust=1 kv=0.208 model=1
new Load.228057846a0 phases=2 bus1=sx3215340a.2.1 conn=w kw=8.870 kvar=2.223 numcust=1 kv=0.208 model=1
new Load.260572c0 phases=2 bus1=sx3236004c.1.2 conn=w kw=6.100 kvar=1.529 numcust=1 kv=0.208 model=1
new Load.260594a0 phases=2 bus1=sx2898457a.1.2 conn=w kw=6.550 kvar=1.642 numcust=1 kv=0.208 model=1
new Load.337665b0 phases=2 bus1=sx2973178b.1.2 conn=w kw=5.840 kvar=1.464 numcust=1 kv=0.208 model=1
new Load.337676a0 phases=2 bus1=sx3235244a.1.2 conn=w kw=8.870 kvar=2.223 numcust=1 kv=0.208 model=1
new Load.356790c0 phases=2 bus1=sx2804957c.1.2 conn=w kw=7.070 kvar=1.772 numcust=1 kv=0.208 model=1
new Load.138720a0 phases=2 bus1=sx3254218a.1.2 conn=w kw=8.870 kvar=2.223 numcust=1 kv=0.208 model=1
new Load.356811a0 phases=2 bus1=sx2804956a.2.1 conn=w kw=8.870 kvar=2.223 numcust=1 kv=0.208 model=1
new Load.226194002b0 phases=2 bus1=sx2801902b.1.2 conn=w kw=14.590 kvar=3.657 numcust=1 kv=0.208 model=1
new Load.337654c0 phases=2 bus1=sx3066808c.1.2 conn=w kw=6.100 kvar=1.529 numcust=1 kv=0.208 model=1
new Load.2000913c0 phases=2 bus1=sx2000913c.2.1 conn=w kw=11.247 kvar=6.374 numcust=1 kv=0.208 model=1
new Load.321861c0 phases=2 bus1=sx3235248c.2.1 conn=w kw=6.100 kvar=1.529 numcust=1 kv=0.208 model=1
new Load.302812c0 phases=2 bus1=sx2691945c.2.1 conn=w kw=10.170 kvar=2.549 numcust=1 kv=0.208 model=1
new Load.302858c0 phases=2 bus1=sx2897776c.1.2 conn=w kw=10.170 kvar=2.549 numcust=1 kv=0.208 model=1
new Load.323243b0 phases=2 bus1=sx2897765b.1.2 conn=w kw=8.840 kvar=2.216 numcust=1 kv=0.208 model=1
new Load.274994c0 phases=2 bus1=sx3048205c.2.1 conn=w kw=10.170 kvar=2.549 numcust=1 kv=0.208 model=1
new Load.247057a0 phases=2 bus1=sx3104128a.2.1 conn=w kw=5.320 kvar=1.333 numcust=1 kv=0.208 model=1
new Load.293592a0 phases=2 bus1=sx2973161a.2.1 conn=w kw=13.300 kvar=3.333 numcust=1 kv=0.208 model=1
new Load.339001b0 phases=2 bus1=sx3178988b.1.2 conn=w kw=6.890 kvar=1.727 numcust=1 kv=0.208 model=1
new Load.2224192013a0 phases=2 bus1=sx3632979a.1.2 conn=w kw=5.320 kvar=1.333 numcust=1 kv=0.208 model=1
new Load.21398402a0 phases=2 bus1=sx2729428a.2.1 conn=w kw=5.320 kvar=1.333 numcust=1 kv=0.208 model=1
new Load.391986a0 phases=2 bus1=sx2766723a.1.2 conn=w kw=8.870 kvar=2.223 numcust=1 kv=0.208 model=1
new Load.225991691a0 phases=2 bus1=sx2989571a.2.1 conn=w kw=5.320 kvar=1.333 numcust=1 kv=0.208 model=1
new Load.21458756c0 phases=2 bus1=sx3232301c.1.2 conn=w kw=30.520 kvar=7.649 numcust=1 kv=0.208 model=1
new Load.21396796b0 phases=2 bus1=sx3141397b.2.1 conn=w kw=9.730 kvar=2.439 numcust=1 kv=0.208 model=1
new Load.2147899c0 phases=2 bus1=sx3160793c.1.2 conn=w kw=9.100 kvar=2.281 numcust=1 kv=0.208 model=1
new Load.226193422b0 phases=2 bus1=sx2726975b.2.1 conn=w kw=5.840 kvar=1.464 numcust=1 kv=0.208 model=1
new Load.2000902c0 phases=2 bus1=sx2000902c.1.2 conn=w kw=11.247 kvar=6.374 numcust=1 kv=0.208 model=1
new Load.251857c0 phases=2 bus1=sx3064514c.1.2 conn=w kw=9.100 kvar=2.281 numcust=1 kv=0.208 model=1
new Load.275007c0 phases=2 bus1=sx2916606c.2.1 conn=w kw=6.100 kvar=1.529 numcust=1 kv=0.208 model=1
new Load.2000706b0 phases=2 bus1=sx2000706b.2.1 conn=w kw=11.786 kvar=6.680 numcust=1 kv=0.208 model=1
new Load.302375b0 phases=2 bus1=sx2973162b.1.2 conn=w kw=5.840 kvar=1.464 numcust=1 kv=0.208 model=1
new Load.2001306a0 phases=2 bus1=sx2001306a.2.1 conn=w kw=9.473 kvar=5.368 numcust=1 kv=0.208 model=1
new Load.247164b0 phases=2 bus1=sx2766732b.1.2 conn=w kw=3.890 kvar=0.975 numcust=1 kv=0.208 model=1
new Load.323389b0 phases=2 bus1=sx3065750b.1.2 conn=w kw=9.730 kvar=2.439 numcust=1 kv=0.208 model=1
new Load.356010a0 phases=2 bus1=sx3216336a.2.1 conn=w kw=8.870 kvar=2.223 numcust=1 kv=0.208 model=1
new Load.321841b0 phases=2 bus1=sx2954347b.1.2 conn=w kw=9.730 kvar=2.439 numcust=1 kv=0.208 model=1
...